Using: /mnt/apps/public/COE/synopsys_apps/hspice/W-2024.09-SP1/hspice/linux64/hspice  -i '/mnt/coe/workspace/ece/ece546-spr25/group8/group8_project/simulation/group8,WLRef_PC,schematic/history_1/simulation/HSPICE_default/HSPICE/nominal/netlist/input.spi' -o 'hspice'

1.00% Tran Time= 2.00000e-12s Estimated Time Left: 0:02:57        
>info:         ***** hspice job concluded
