$DATA1 SOURCE='PrimeSim HSPICE' VERSION='W-2024.09-SP1 linux64' PARAM_COUNT=0
.TITLE '*  generated for: primesim'
 qtot             etot             temper           alter#          
 -2.974e-12        2.379e-12         25.0000        1               
