Using: /mnt/apps/public/COE/synopsys_apps/hspice/W-2024.09-SP1/hspice/linux64/hspice  -i '/mnt/coe/workspace/ece/ece546-spr25/group8/group8_project/simulation/group8,memory_array_tb,schematic/history_1/simulation/HSPICE_default_working_Makes_Sense/HSPICE/nominal/netlist/input.spi' -o 'hspice'

0.02% Tran Time= 1.00000e-13s Estimated Time Left: 3:35:00        
8.56% Tran Time= 4.28207e-11s Estimated Time Left: 0:00:38        
38.81% Tran Time= 1.94062e-10s Estimated Time Left: 0:00:07        
67.86% Tran Time= 3.39304e-10s Estimated Time Left: 0:00:02        
97.91% Tran Time= 4.89543e-10s Estimated Time Left: 0:00:00        
>info:         ***** hspice job concluded
