Using: /mnt/apps/public/COE/synopsys_apps/hspice/W-2024.09-SP1/hspice/linux64/hspice  -i '/mnt/coe/workspace/ece/ece546-spr25/group8/group8_project/simulation/group8,memory_array_tb,schematic/history_1/simulation/default/PrimeSimHSPICE/nominal/netlist/input.spi' -o 'hspice'

0.01% Tran Time= 1.00000e-13s Estimated Time Left: 7:05:22        
4.23% Tran Time= 4.22553e-11s Estimated Time Left: 0:01:20        
18.97% Tran Time= 1.89705e-10s Estimated Time Left: 0:00:19        
33.29% Tran Time= 3.32891e-10s Estimated Time Left: 0:00:11        
48.13% Tran Time= 4.81300e-10s Estimated Time Left: 0:00:07        
62.26% Tran Time= 6.22581e-10s Estimated Time Left: 0:00:04        
77.12% Tran Time= 7.71170e-10s Estimated Time Left: 0:00:02        
91.29% Tran Time= 9.12897e-10s Estimated Time Left: 0:00:00        
95.69% Tran Time= 9.56948e-10s Estimated Time Left: 0:00:00        
>info:         ***** hspice job concluded
