Using: /mnt/apps/public/COE/synopsys_apps/hspice/W-2024.09-SP1/hspice/linux64/hspice  -i '/mnt/coe/workspace/ece/ece546-spr25/group8/group8_project/simulation/group8,precharge_logic_tb,schematic/history_1/simulation/default/PrimeSimHSPICE/nominal/netlist/input.spi' -o 'hspice'

0.07% Tran Time= 2.00000e-13s Estimated Time Left: 0:50:07        
>info:         ***** hspice job concluded
