Using: /mnt/apps/public/COE/synopsys_apps/hspice/W-2024.09-SP1/hspice/linux64/hspice  -i '/mnt/coe/workspace/ece/ece546-spr25/group8/group8_project/simulation/group8,sram_6t_tb,schematic/history_1/simulation/HSPICE_default_2/PrimeSimHSPICE/nominal/netlist/input.spi' -o 'hspice'

0.05% Tran Time= 1.00000e-13s Estimated Time Left: 1:01:26        
>info:         ***** hspice job concluded
