Using: /mnt/apps/public/COE/synopsys_apps/hspice/W-2024.09-SP1/hspice/linux64/hspice  -i '/mnt/coe/workspace/ece/ece546-spr25/group8/group8_project/simulation/group8,memory_array_write_test,schematic/history_1/simulation/default/PrimeSimHSPICE/nominal/netlist/input.spi' -o 'hspice'

0.00% Tran Time= 2.00000e-15s Estimated Time Left:84:23:02        
>info:         ***** hspice job concluded
