Using: /mnt/apps/public/COE/synopsys_apps/hspice/W-2024.09-SP1/hspice/linux64/hspice  -i '/mnt/coe/workspace/ece/ece546-spr25/group8/group8_project/simulation/group8,memory_array_tb,schematic/history_1/simulation/HSPICE_default/HSPICE/nominal/netlist/input.spi' -o 'hspice'

0.01% Tran Time= 1.00000e-13s Estimated Time Left: 6:04:36        
46.30% Tran Time= 4.63011e-10s Estimated Time Left: 0:00:03        
94.00% Tran Time= 9.39953e-10s Estimated Time Left: 0:00:00        
>info:         ***** hspice job concluded
